Alim_Meia_Ponte_5_REDUZIDO/OBSOLETOS/5002086/Line.dss
New "Line.cmt_5281595" phases=3 bus1=81463945002086.1.2.3 bus2=81463945002086b.1.2.3 r1=1 r0=1 x1=1 x0=1 C1=1.1 C0=1 length=0.001 Switch=True
New "Line.cmt_5286666" phases=3 bus1=82034695002086.1.2.3 bus2=82034695002086b.1.2.3 r1=1 r0=1 x1=1 x0=1 C1=1.1 C0=1 length=0.001 Switch=True
New "Line.cmt_5286668" phases=3 bus1=82034735002086.1.2.3 bus2=82034735002086b.1.2.3 r1=1 r0=1 x1=1 x0=1 C1=1.1 C0=1 length=0.001 Switch=True
New "Line.cmt_5286669" phases=3 bus1=82044285002086.1.2.3 bus2=82044285002086b.1.2.3 r1=1 r0=1 x1=1 x0=1 C1=1.1 C0=1 length=0.001 Switch=True
New "Line.cmt_5286671" phases=3 bus1=82054225002086.1.2.3 bus2=82054225002086b.1.2.3 r1=1 r0=1 x1=1 x0=1 C1=1.1 C0=1 length=0.001 Switch=True
New "Line.cmt_5286672" phases=3 bus1=82061785002086.1.2.3 bus2=82061785002086b.1.2.3 r1=1 r0=1 x1=1 x0=1 C1=1.1 C0=1 length=0.001 Switch=True
New "Line.cmt_5286673" phases=3 bus1=82021065002086.1.2.3 bus2=82021065002086b.1.2.3 r1=1 r0=1 x1=1 x0=1 C1=1.1 C0=1 length=0.001 Switch=True
New "Line.cmt_5286723" phases=3 bus1=82021185002086.1.2.3 bus2=82021185002086b.1.2.3 r1=1 r0=1 x1=1 x0=1 C1=1.1 C0=1 length=0.001 Switch=True
New "Line.cmt_5286724" phases=3 bus1=82021295002086.1.2.3 bus2=82021295002086b.1.2.3 r1=1 r0=1 x1=1 x0=1 C1=1.1 C0=1 length=0.001 Switch=True
New "Line.cmt_5286725" phases=3 bus1=82020565002086.1.2.3 bus2=82020565002086b.1.2.3 r1=1 r0=1 x1=1 x0=1 C1=1.1 C0=1 length=0.001 Switch=True
New "Line.cmt_5286726" phases=3 bus1=82020685002086.1.2.3 bus2=82020685002086b.1.2.3 r1=1 r0=1 x1=1 x0=1 C1=1.1 C0=1 length=0.001 Switch=True
New "Line.cmt_5286727" phases=3 bus1=82022045002086.1.2.3 bus2=82022045002086b.1.2.3 r1=1 r0=1 x1=1 x0=1 C1=1.1 C0=1 length=0.001 Switch=True
New "Line.cmt_5286728" phases=3 bus1=82032965002086.1.2.3 bus2=82032965002086b.1.2.3 r1=1 r0=1 x1=1 x0=1 C1=1.1 C0=1 length=0.001 Switch=True
New "Line.cmt_5286729" phases=3 bus1=82033185002086.1.2.3 bus2=82033185002086b.1.2.3 r1=1 r0=1 x1=1 x0=1 C1=1.1 C0=1 length=0.001 Switch=True
New "Line.cmt_5286730" phases=3 bus1=82024945002086.1.2.3 bus2=82024945002086b.1.2.3 r1=1 r0=1 x1=1 x0=1 C1=1.1 C0=1 length=0.001 Switch=True
New "Line.cmt_5286733" phases=3 bus1=82035225002086.1.2.3 bus2=82035225002086b.1.2.3 r1=1 r0=1 x1=1 x0=1 C1=1.1 C0=1 length=0.001 Switch=True
New "Line.cmt_5286734" phases=3 bus1=82036255002086.1.2.3 bus2=82036255002086b.1.2.3 r1=1 r0=1 x1=1 x0=1 C1=1.1 C0=1 length=0.001 Switch=True
New "Line.cmt_5286735" phases=3 bus1=82027155002086.1.2.3 bus2=82027155002086b.1.2.3 r1=1 r0=1 x1=1 x0=1 C1=1.1 C0=1 length=0.001 Switch=True
New "Line.cmt_5286738" phases=3 bus1=82026665002086.1.2.3 bus2=82026665002086b.1.2.3 r1=1 r0=1 x1=1 x0=1 C1=1.1 C0=1 length=0.001 Switch=True
New "Line.cmt_5286745" phases=3 bus1=81488785002086.1.2.3 bus2=81488785002086b.1.2.3 r1=1 r0=1 x1=1 x0=1 C1=1.1 C0=1 length=0.001 Switch=True
New "Line.cmt_5286747" phases=3 bus1=82041135002086.1.2.3 bus2=82041135002086b.1.2.3 r1=1 r0=1 x1=1 x0=1 C1=1.1 C0=1 length=0.001 Switch=True
New "Line.cmt_5286748" phases=3 bus1=82041735002086.1.2.3 bus2=82041735002086b.1.2.3 r1=1 r0=1 x1=1 x0=1 C1=1.1 C0=1 length=0.001 Switch=True
New "Line.cmt_5286749" phases=3 bus1=82041395002086.1.2.3 bus2=82041395002086b.1.2.3 r1=1 r0=1 x1=1 x0=1 C1=1.1 C0=1 length=0.001 Switch=True
New "Line.cmt_5286750" phases=3 bus1=82041875002086.1.2.3 bus2=82041875002086b.1.2.3 r1=1 r0=1 x1=1 x0=1 C1=1.1 C0=1 length=0.001 Switch=True
New "Line.cmt_5286751" phases=3 bus1=82038835002086.1.2.3 bus2=82038835002086b.1.2.3 r1=1 r0=1 x1=1 x0=1 C1=1.1 C0=1 length=0.001 Switch=True
New "Line.cmt_5286764" phases=3 bus1=82053795002086.1.2.3 bus2=82053795002086b.1.2.3 r1=1 r0=1 x1=1 x0=1 C1=1.1 C0=1 length=0.001 Switch=True
New "Line.cmt_5286765" phases=3 bus1=82062465002086.1.2.3 bus2=82062465002086b.1.2.3 r1=1 r0=1 x1=1 x0=1 C1=1.1 C0=1 length=0.001 Switch=True
New "Line.cmt_5286773" phases=3 bus1=82056365002086.1.2.3 bus2=82056365002086b.1.2.3 r1=1 r0=1 x1=1 x0=1 C1=1.1 C0=1 length=0.001 Switch=True
New "Line.cmt_5286780" phases=3 bus1=82040105002086.1.2.3 bus2=82040105002086b.1.2.3 r1=1 r0=1 x1=1 x0=1 C1=1.1 C0=1 length=0.001 Switch=True
New "Line.cmt_5286781" phases=3 bus1=82039925002086.1.2.3 bus2=82039925002086b.1.2.3 r1=1 r0=1 x1=1 x0=1 C1=1.1 C0=1 length=0.001 Switch=True
New "Line.cmt_5286948" phases=3 bus1=82032935002086.1.2.3 bus2=82032935002086b.1.2.3 r1=1 r0=1 x1=1 x0=1 C1=1.1 C0=1 length=0.001 Switch=True
New "Line.cmt_5286952" phases=3 bus1=82049705002086.1.2.3 bus2=82049705002086b.1.2.3 r1=1 r0=1 x1=1 x0=1 C1=1.1 C0=1 length=0.001 Switch=True
New "Line.cmt_5286954" phases=3 bus1=82050055002086.1.2.3 bus2=82050055002086b.1.2.3 r1=1 r0=1 x1=1 x0=1 C1=1.1 C0=1 length=0.001 Switch=True
New "Line.cmt_5286957" phases=3 bus1=82040065002086.1.2.3 bus2=82040065002086b.1.2.3 r1=1 r0=1 x1=1 x0=1 C1=1.1 C0=1 length=0.001 Switch=True
New "Line.cmt_5323940" phases=3 bus1=82062695002086.1.2.3 bus2=82062695002086b.1.2.3 r1=1 r0=1 x1=1 x0=1 C1=1.1 C0=1 length=0.001 Switch=True
New "Line.cmt_5508800" phases=1 bus1=81489165002086.2 bus2=81489165002086b.2 r1=1 r0=1 x1=1 x0=1 C1=1.1 C0=1.1 length=0.001 Switch=True
New "Line.cmt_5551605" phases=3 bus1=82049585002086.1.2.3 bus2=82049585002086b.1.2.3 r1=1 r0=1 x1=1 x0=1 C1=1.1 C0=1 length=0.001 Switch=True
New "Line.cmt_5552857" phases=3 bus1=81461105002086.1.2.3 bus2=81461105002086b.1.2.3 r1=1 r0=1 x1=1 x0=1 C1=1.1 C0=1 length=0.001 Switch=True
New "Line.cmt_5578546" phases=3 bus1=93435145002086.1.2.3 bus2=93435145002086b.1.2.3 r1=1 r0=1 x1=1 x0=1 C1=1.1 C0=1 length=0.001 Switch=True
New "Line.cmt_5583771" phases=3 bus1=91074325002086b.1.2.3 bus2=91074325002086.1.2.3 r1=1 r0=1 x1=1 x0=1 C1=1.1 C0=1 length=0.001 Switch=True
New "Line.cmt_5583773" phases=3 bus1=91074225002086b.1.2.3 bus2=91074225002086.1.2.3 r1=1 r0=1 x1=1 x0=1 C1=1.1 C0=1 length=0.001 Switch=True
New "Line.cmt_5583775" phases=3 bus1=91074275002086.1.2.3 bus2=91074275002086b.1.2.3 r1=1 r0=1 x1=1 x0=1 C1=1.1 C0=1 length=0.001 Switch=True
New "Line.cmt_5643544" phases=3 bus1=82054405002086.1.2.3 bus2=82054405002086b.1.2.3 r1=1 r0=1 x1=1 x0=1 C1=1.1 C0=1 length=0.001 Switch=True
New "Line.cmt_5643564" phases=3 bus1=82049415002086.1.2.3 bus2=82049415002086b.1.2.3 r1=1 r0=1 x1=1 x0=1 C1=1.1 C0=1 length=0.001 Switch=True
New "Line.cmt_5643565" phases=3 bus1=82050535002086.1.2.3 bus2=82050535002086b.1.2.3 r1=1 r0=1 x1=1 x0=1 C1=1.1 C0=1 length=0.001 Switch=True
New "Line.cmt_5644923" phases=3 bus1=82039505002086.1.2.3 bus2=82039505002086b.1.2.3 r1=1 r0=1 x1=1 x0=1 C1=1.1 C0=1 length=0.001 Switch=True
New "Line.cmt_5678387" phases=3 bus1=94074905002086.1.2.3 bus2=94074905002086b.1.2.3 r1=1 r0=1 x1=1 x0=1 C1=1.1 C0=1 length=0.001 Switch=True
New "Line.cmt_5688531" phases=3 bus1=94324195002086.1.2.3 bus2=94324195002086b.1.2.3 r1=1 r0=1 x1=1 x0=1 C1=1.1 C0=1 length=0.001 Switch=True
New "Line.cmt_5689023" phases=3 bus1=94336075002086.1.2.3 bus2=94336075002086b.1.2.3 r1=1 r0=1 x1=1 x0=1 C1=1.1 C0=1 length=0.001 Switch=True
New "Line.cmt_5689028" phases=3 bus1=82049875002086b.1.2.3 bus2=82049875002086.1.2.3 r1=1 r0=1 x1=1 x0=1 C1=1.1 C0=1 length=0.001 Switch=True
New "Line.cmt_5700356" phases=3 bus1=82021055002086.1.2.3 bus2=82021055002086b.1.2.3 r1=1 r0=1 x1=1 x0=1 C1=1.1 C0=1 length=0.001 Switch=True
New "Line.cmt_5702013" phases=3 bus1=94562805002086.1.2.3 bus2=94562805002086b.1.2.3 r1=1 r0=1 x1=1 x0=1 C1=1.1 C0=1 length=0.001 Switch=True
New "Line.cmt_5702435" phases=3 bus1=94329945002086.1.2.3 bus2=94329945002086b.1.2.3 r1=1 r0=1 x1=1 x0=1 C1=1.1 C0=1 length=0.001 Switch=True
New "Line.cmt_5702629" phases=3 bus1=94511475002086.1.2.3 bus2=94511475002086b.1.2.3 r1=1 r0=1 x1=1 x0=1 C1=1.1 C0=1 length=0.001 Switch=True
New "Line.cmt_5710501" phases=3 bus1=94777705002086.1.2.3 bus2=94777705002086b.1.2.3 r1=1 r0=1 x1=1 x0=1 C1=1.1 C0=1 length=0.001 Switch=True
New "Line.cmt_5720545" phases=3 bus1=95200765002086.1.2.3 bus2=95200765002086b.1.2.3 r1=1 r0=1 x1=1 x0=1 C1=1.1 C0=1 length=0.001 Switch=True
New "Line.cmt_5722432" phases=3 bus1=95217345002086.1.2.3 bus2=95217345002086b.1.2.3 r1=1 r0=1 x1=1 x0=1 C1=1.1 C0=1 length=0.001 Switch=True
New "Line.cmt_5724674" phases=3 bus1=95404015002086.1.2.3 bus2=95404015002086b.1.2.3 r1=1 r0=1 x1=1 x0=1 C1=1.1 C0=1 length=0.001 Switch=True
New "Line.cmt_5744154" phases=3 bus1=96264645002086.1.2.3 bus2=96264645002086b.1.2.3 r1=1 r0=1 x1=1 x0=1 C1=1.1 C0=1 length=0.001 Switch=True
New "Line.cmt_5750091" phases=3 bus1=82064415002086b.1.2.3 bus2=82064415002086.1.2.3 r1=1 r0=1 x1=1 x0=1 C1=1.1 C0=1 length=0.001 Switch=True
New "Line.cmt_da0000250" phases=3 bus1=i888888516565002086b.1.2.3 bus2=i888888516565002086.1.2.3 r1=1 r0=1 x1=1 x0=1 C1=1.1 C0=1 length=0.001 Switch=True
New "Line.cmt_sa0002741" phases=3 bus1=i888888516575002086b.1.2.3 bus2=i888888516575002086.1.2.3 r1=1 r0=1 x1=1 x0=1 C1=1.1 C0=1 length=0.001 Switch=True
New "Line.cmt_sa0002742" phases=3 bus1=i888888516555002086b.1.2.3 bus2=i888888516555002086.1.2.3 r1=1 r0=1 x1=1 x0=1 C1=1.1 C0=1 length=0.001 Switch=True
New "Line.smt_53072474" phases=3 bus1=82021285002086.1.2.3 bus2=82021835002086.1.2.3 linecode=33-31m_3 Seasons=1 Ratings=[400,] normamps=152 emergamps=600 length=0.034893 units=km
New "Line.smt_53072475" phases=3 bus1=82021855002086.1.2.3 bus2=82021885002086.1.2.3 linecode=1-31m_3 Seasons=1 Ratings=[400,] normamps=419 emergamps=600 length=0.047104 units=km
New "Line.smt_53072476" phases=3 bus1=82021925002086.1.2.3 bus2=82021905002086.1.2.3 linecode=30-31m_3 Seasons=1 Ratings=[400,] normamps=203 emergamps=600 length=0.026419 units=km
New "Line.smt_53072477" phases=3 bus1=82021885002086.1.2.3 bus2=82021925002086.1.2.3 linecode=1-31m_3 Seasons=1 Ratings=[400,] normamps=419 emergamps=600 length=0.027015 units=km
New "Line.smt_53072478" phases=3 bus1=82021925002086.1.2.3 bus2=82021915002086.1.2.3 linecode=1-31m_3 Seasons=1 Ratings=[400,] normamps=419 emergamps=600 length=0.009647 units=km
New "Line.smt_53072479" phases=3 bus1=82021915002086.1.2.3 bus2=95217355002086.1.2.3 linecode=1-31m_3 Seasons=1 Ratings=[400,] normamps=419 emergamps=600 length=0.005088 units=km
New "Line.smt_53072480" phases=3 bus1=82021955002086.1.2.3 bus2=82021975002086.1.2.3 linecode=1-31m_3 Seasons=1 Ratings=[400,] normamps=419 emergamps=600 length=0.04122 units=km
New "Line.smt_53072481" phases=3 bus1=82021935002086.1.2.3 bus2=82021955002086.1.2.3 linecode=1-31m_3 Seasons=1 Ratings=[400,] normamps=419 emergamps=600 length=0.06012 units=km
New "Line.smt_53072482" phases=3 bus1=82021975002086.1.2.3 bus2=82021995002086.1.2.3 linecode=1-31m_3 Seasons=1 Ratings=[400,] normamps=419 emergamps=600 length=0.042612 units=km
New "Line.smt_53072483" phases=3 bus1=82021975002086.1.2.3 bus2=82022045002086.1.2.3 linecode=33-31m_3 Seasons=1 Ratings=[400,] normamps=152 emergamps=600 length=0.028641 units=km
New "Line.smt_53072484" phases=3 bus1=82022045002086b.1.2.3 bus2=82022055002086.1.2.3 linecode=33-31m_3 Seasons=1 Ratings=[400,] normamps=152 emergamps=600 length=0.046647 units=km
New "Line.smt_53072485" phases=3 bus1=82022055002086.1.2.3 bus2=82022225002086.1.2.3 linecode=33-31m_3 Seasons=1 Ratings=[400,] normamps=152 emergamps=600 length=0.035259 units=km
New "Line.smt_53072486" phases=3 bus1=82022225002086.1.2.3 bus2=82023945002086.1.2.3 linecode=33-31m_3 Seasons=1 Ratings=[400,] normamps=152 emergamps=600 length=0.035773 units=km
New "Line.smt_53072487" phases=3 bus1=82023945002086.1.2.3 bus2=82023955002086.1.2.3 linecode=33-31m_3 Seasons=1 Ratings=[400,] normamps=152 emergamps=600 length=0.044015 units=km
New "Line.smt_53072488" phases=3 bus1=82023955002086.1.2.3 bus2=82024125002086.1.2.3 linecode=33-31m_3 Seasons=1 Ratings=[400,] normamps=152 emergamps=600 length=0.03717 units=km
New "Line.smt_53072489" phases=3 bus1=82024125002086.1.2.3 bus2=82024135002086.1.2.3 linecode=33-31m_3 Seasons=1 Ratings=[400,] normamps=152 emergamps=600 length=0.040864 units=km
New "Line.smt_53072490" phases=3 bus1=82024135002086.1.2.3 bus2=82024145002086.1.2.3 linecode=33-31m_3 Seasons=1 Ratings=[400,] normamps=152 emergamps=600 length=0.038938 units=km
New "Line.smt_53072491" phases=3 bus1=82024145002086.1.2.3 bus2=82024315002086.1.2.3 linecode=33-31m_3 Seasons=1 Ratings=[400,] normamps=152 emergamps=600 length=0.045787 units=km
New "Line.smt_53072492" phases=3 bus1=82024315002086.1.2.3 bus2=82024325002086.1.2.3 linecode=33-31m_3 Seasons=1 Ratings=[400,] normamps=152 emergamps=600 length=0.030487 units=km
New "Line.smt_53072493" phases=3 bus1=82019985002086.1.2.3 bus2=82019965002086.1.2.3 linecode=33-31m_3 Seasons=1 Ratings=[400,] normamps=152 emergamps=600 length=0.054094 units=km
New "Line.smt_53072494" phases=3 bus1=82020015002086.1.2.3 bus2=82019985002086.1.2.3 linecode=33-31m_3 Seasons=1 Ratings=[400,] normamps=152 emergamps=600 length=0.026527 units=km
New "Line.smt_53072495" phases=3 bus1=82020025002086.1.2.3 bus2=82020015002086.1.2.3 linecode=33-31m_3 Seasons=1 Ratings=[400,] normamps=152 emergamps=600 length=0.027438 units=km
New "Line.smt_53072496" phases=3 bus1=82020055002086.1.2.3 bus2=82020025002086.1.2.3 linecode=33-31m_3 Seasons=1 Ratings=[400,] normamps=152 emergamps=600 length=0.040245 units=km
New "Line.smt_53072497" phases=3 bus1=82020075002086.1.2.3 bus2=82020055002086.1.2.3 linecode=33-31m_3 Seasons=1 Ratings=[400,] normamps=152 emergamps=600 length=0.054436 units=km
New "Line.smt_53072498" phases=3 bus1=82020185002086.1.2.3 bus2=82020175002086.1.2.3 linecode=33-31m_3 Seasons=1 Ratings=[400,] normamps=152 emergamps=600 length=0.042594 units=km
New "Line.smt_53072499" phases=3 bus1=82020195002086.1.2.3 bus2=82020185002086.1.2.3 linecode=33-31m_3 Seasons=1 Ratings=[400,] normamps=152 emergamps=600 length=0.0311 units=km
New "Line.smt_53072500" phases=3 bus1=82024515002086.1.2.3 bus2=81463945002086.1.2.3 linecode=1-31m_3 Seasons=1 Ratings=[400,] normamps=419 emergamps=600 length=0.026481 units=km
New "Line.smt_53072501" phases=3 bus1=82020405002086.1.2.3 bus2=82020195002086.1.2.3 linecode=33-31m_3 Seasons=1 Ratings=[400,] normamps=152 emergamps=600 length=0.044543 units=km
New "Line.smt_53072502" phases=3 bus1=82020415002086.1.2.3 bus2=82020405002086.1.2.3 linecode=33-31m_3 Seasons=1 Ratings=[400,] normamps=152 emergamps=600 length=0.036303 units=km
New "Line.smt_53072503" phases=3 bus1=82020525002086.1.2.3 bus2=82020075002086.1.2.3 linecode=33-31m_3 Seasons=1 Ratings=[400,] normamps=152 emergamps=600 length=0.03799 units=km
New "Line.smt_53072504" phases=3 bus1=82020555002086.1.2.3 bus2=82020525002086.1.2.3 linecode=33-31m_3 Seasons=1 Ratings=[400,] normamps=152 emergamps=600 length=0.041624 units=km
New "Line.smt_53072505" phases=3 bus1=82020565002086b.1.2.3 bus2=82020555002086.1.2.3 linecode=33-31m_3 Seasons=1 Ratings=[400,] normamps=152 emergamps=600 length=0.0311 units=km
New "Line.smt_53072506" phases=3 bus1=82020675002086.1.2.3 bus2=82020415002086.1.2.3 linecode=33-31m_3 Seasons=1 Ratings=[400,] normamps=152 emergamps=600 length=0.040864 units=km
New "Line.smt_53072507" phases=3 bus1=82020685002086b.1.2.3 bus2=82020675002086.1.2.3 linecode=33-31m_3 Seasons=1 Ratings=[400,] normamps=152 emergamps=600 length=0.031583 units=km
New "Line.smt_53072508" phases=3 bus1=82024585002086.1.2.3 bus2=82024615002086.1.2.3 linecode=1-31m_3 Seasons=1 Ratings=[400,] normamps=419 emergamps=600 length=0.055766 units=km
New "Line.smt_53072509" phases=3 bus1=82024615002086.1.2.3 bus2=82024625002086.1.2.3 linecode=1-31m_3 Seasons=1 Ratings=[400,] normamps=419 emergamps=600 length=0.038844 units=km
New "Line.smt_53072510" phases=3 bus1=82024625002086.1.2.3 bus2=82024635002086.1.2.3 linecode=1-31m_3 Seasons=1 Ratings=[400,] normamps=419 emergamps=600 length=0.026083 units=km
New "Line.smt_53072511" phases=3 bus1=82024635002086.1.2.3 bus2=82036795002086.1.2.3 linecode=1-31m_3 Seasons=1 Ratings=[400,] normamps=419 emergamps=600 length=0.042841 units=km
New "Line.smt_53072512" phases=3 bus1=82025745002086.1.2.3 bus2=82025735002086.1.2.3 linecode=33-31m_3 Seasons=1 Ratings=[400,] normamps=152 emergamps=600 length=0.037848 units=km
New "Line.smt_53072513" phases=3 bus1=82025755002086.1.2.3 bus2=82025745002086.1.2.3 linecode=33-31m_3 Seasons=1 Ratings=[400,] normamps=152 emergamps=600 length=0.031501 units=km
New "Line.smt_53072514" phases=3 bus1=82025905002086.1.2.3 bus2=82025915002086.1.2.3 linecode=33-31m_3 Seasons=1 Ratings=[400,] normamps=152 emergamps=600 length=0.036257 units=km
New "Line.smt_53072515" phases=3 bus1=82025915002086.1.2.3 bus2=82025755002086.1.2.3 linecode=33-31m_3 Seasons=1 Ratings=[400,] normamps=152 emergamps=600 length=0.041131 units=km
New "Line.smt_53072516" phases=3 bus1=82025985002086.1.2.3 bus2=82025905002086.1.2.3 linecode=33-31m_3 Seasons=1 Ratings=[400,] normamps=152 emergamps=600 length=0.050842 units=km
New "Line.smt_53072517" phases=3 bus1=82025995002086.1.2.3 bus2=82025985002086.1.2.3 linecode=33-31m_3 Seasons=1 Ratings=[400,] normamps=152 emergamps=600 length=0.031567 units=km
New "Line.smt_53072518" phases=3 bus1=82026005002086.1.2.3 bus2=82025995002086.1.2.3 linecode=33-31m_3 Seasons=1 Ratings=[400,] normamps=152 emergamps=600 length=0.033182 units=km
New "Line.smt_53072519" phases=3 bus1=82026015002086.1.2.3 bus2=82026005002086.1.2.3 linecode=33-31m_3 Seasons=1 Ratings=[400,] normamps=152 emergamps=600 length=0.036612 units=km
New "Line.smt_53072520" phases=3 bus1=82026025002086.1.2.3 bus2=82026015002086.1.2.3 linecode=33-31m_3 Seasons=1 Ratings=[400,] normamps=152 emergamps=600 length=0.043982 units=km
New "Line.smt_53072521" phases=3 bus1=82025035002086.1.2.3 bus2=82026025002086.1.2.3 linecode=33-31m_3 Seasons=1 Ratings=[400,] normamps=152 emergamps=600 length=0.021859 units=km
New "Line.smt_53072522" phases=3 bus1=82026375002086.1.2.3 bus2=82026385002086.1.2.3 linecode=33-31m_3 Seasons=1 Ratings=[400,] normamps=152 emergamps=600 length=0.036311 units=km
New "Line.smt_53072523" phases=3 bus1=82026685002086.1.2.3 bus2=82026705002086.1.2.3 linecode=33-31m_3 Seasons=1 Ratings=[400,] normamps=152 emergamps=600 length=0.036498 units=km
New "Line.smt_53072524" phases=3 bus1=82026915002086.1.2.3 bus2=82026925002086.1.2.3 linecode=33-31m_3 Seasons=1 Ratings=[400,] normamps=152 emergamps=600 length=0.047137 units=km
New "Line.smt_53072525" phases=3 bus1=82027165002086.1.2.3 bus2=82026915002086.1.2.3 linecode=33-31m_3 Seasons=1 Ratings=[400,] normamps=152 emergamps=600 length=0.040102 units=km
New "Line.smt_53072526" phases=3 bus1=82024995002086.1.2.3 bus2=82026965002086.1.2.3 linecode=33-31m_3 Seasons=1 Ratings=[400,] normamps=152 emergamps=600 length=0.033729 units=km
New "Line.smt_53072528" phases=3 bus1=82026965002086.1.2.3 bus2=82025005002086.1.2.3 linecode=33-31m_3 Seasons=1 Ratings=[400,] normamps=152 emergamps=600 length=0.042172 units=km
New "Line.smt_53072529" phases=3 bus1=82028375002086.1.2.3 bus2=82028365002086.1.2.3 linecode=33-31m_3 Seasons=1 Ratings=[400,] normamps=152 emergamps=600 length=0.036742 units=km
New "Line.smt_53072530" phases=3 bus1=82028385002086.1.2.3 bus2=82028375002086.1.2.3 linecode=33-31m_3 Seasons=1 Ratings=[400,] normamps=152 emergamps=600 length=0.03501 units=km
New "Line.smt_53072531" phases=3 bus1=82028395002086.1.2.3 bus2=82028385002086.1.2.3 linecode=33-31m_3 Seasons=1 Ratings=[400,] normamps=152 emergamps=600 length=0.041773 units=km
New "Line.smt_53072532" phases=3 bus1=82028405002086.1.2.3 bus2=82028395002086.1.2.3 linecode=33-31m_3 Seasons=1 Ratings=[400,] normamps=152 emergamps=600 length=0.019124 units=km
New "Line.smt_53072533" phases=3 bus1=82029135002086.1.2.3 bus2=82028315002086.1.2.3 linecode=33-31m_3 Seasons=1 Ratings=[400,] normamps=152 emergamps=600 length=0.034169 units=km
New "Line.smt_53072534" phases=3 bus1=82028315002086.1.2.3 bus2=82029145002086.1.2.3 linecode=33-31m_3 Seasons=1 Ratings=[400,] normamps=152 emergamps=600 length=0.04326 units=km
New "Line.smt_53072535" phases=3 bus1=82029145002086.1.2.3 bus2=82027655002086.1.2.3 linecode=33-31m_3 Seasons=1 Ratings=[400,] normamps=152 emergamps=600 length=0.033007 units=km
New "Line.smt_53072536" phases=3 bus1=82027655002086.1.2.3 bus2=82027665002086.1.2.3 linecode=33-31m_3 Seasons=1 Ratings=[400,] normamps=152 emergamps=600 length=0.038426 units=km
New "Line.smt_53072537" phases=3 bus1=82027665002086.1.2.3 bus2=82027685002086.1.2.3 linecode=33-31m_3 Seasons=1 Ratings=[400,] normamps=152 emergamps=600 length=0.029969 units=km
New "Line.smt_53072538" phases=3 bus1=82027685002086.1.2.3 bus2=82027695002086.1.2.3 linecode=33-31m_3 Seasons=1 Ratings=[400,] normamps=152 emergamps=600 length=0.034754 units=km
New "Line.smt_53072539" phases=3 bus1=82027695002086.1.2.3 bus2=82028405002086.1.2.3 linecode=33-31m_3 Seasons=1 Ratings=[400,] normamps=152 emergamps=600 length=0.012173 units=km
New "Line.smt_53072540" phases=3 bus1=82028405002086.1.2.3 bus2=82027705002086.1.2.3 linecode=33-31m_3 Seasons=1 Ratings=[400,] normamps=152 emergamps=600 length=0.012809 units=km
New "Line.smt_53072541" phases=3 bus1=82028405002086.1.2.3 bus2=82027715002086.1.2.3 linecode=33-31m_3 Seasons=1 Ratings=[400,] normamps=152 emergamps=600 length=0.020429 units=km
New "Line.smt_53072542" phases=3 bus1=82027715002086.1.2.3 bus2=82027725002086.1.2.3 linecode=33-31m_3 Seasons=1 Ratings=[400,] normamps=152 emergamps=600 length=0.032078 units=km
New "Line.smt_53072543" phases=3 bus1=82027725002086.1.2.3 bus2=82027735002086.1.2.3 linecode=33-31m_3 Seasons=1 Ratings=[400,] normamps=152 emergamps=600 length=0.030298 units=km
New "Line.smt_53072544" phases=3 bus1=82027145002086.1.2.3 bus2=82027155002086.1.2.3 linecode=33-31m_3 Seasons=1 Ratings=[400,] normamps=152 emergamps=600 length=0.066704 units=km
New "Line.smt_53072545" phases=3 bus1=82027135002086.1.2.3 bus2=82027145002086.1.2.3 linecode=33-31m_3 Seasons=1 Ratings=[400,] normamps=152 emergamps=600 length=0.036412 units=km
New "Line.smt_53072546" phases=3 bus1=82027155002086b.1.2.3 bus2=82027165002086.1.2.3 linecode=33-31m_3 Seasons=1 Ratings=[400,] normamps=152 emergamps=600 length=0.014997 units=km
New "Line.smt_53072547" phases=3 bus1=82027205002086.1.2.3 bus2=82027195002086.1.2.3 linecode=52-31m_3 Seasons=1 Ratings=[400,] normamps=230 emergamps=600 length=0.042601 units=km
New "Line.smt_53072548" phases=3 bus1=82027195002086.1.2.3 bus2=82027135002086.1.2.3 linecode=33-31m_3 Seasons=1 Ratings=[400,] normamps=152 emergamps=600 length=0.036861 units=km
New "Line.smt_53072549" phases=3 bus1=82026625002086.1.2.3 bus2=82026615002086.1.2.3 linecode=33-31m_3 Seasons=1 Ratings=[400,] normamps=152 emergamps=600 length=0.038198 units=km
New "Line.smt_53072550" phases=3 bus1=82026655002086.1.2.3 bus2=82026665002086.1.2.3 linecode=33-31m_3 Seasons=1 Ratings=[400,] normamps=152 emergamps=600 length=0.054436 units=km
New "Line.smt_53072551" phases=3 bus1=82026675002086.1.2.3 bus2=82026685002086.1.2.3 linecode=33-31m_3 Seasons=1 Ratings=[400,] normamps=152 emergamps=600 length=0.045004 units=km
New "Line.smt_53072552" phases=3 bus1=82026665002086b.1.2.3 bus2=82026675002086.1.2.3 linecode=33-31m_3 Seasons=1 Ratings=[400,] normamps=152 emergamps=600 length=0.02791 units=km
New "Line.smt_53072553" phases=3 bus1=82025735002086.1.2.3 bus2=82026655002086.1.2.3 linecode=33-31m_3 Seasons=1 Ratings=[400,] normamps=152 emergamps=600 length=0.028958 units=km
New "Line.smt_53072554" phases=3 bus1=82026655002086.1.2.3 bus2=82026645002086.1.2.3 linecode=33-31m_3 Seasons=1 Ratings=[400,] normamps=152 emergamps=600 length=0.017593 units=km
New "Line.smt_53072555" phases=3 bus1=82026645002086.1.2.3 bus2=82026635002086.1.2.3 linecode=33-31m_3 Seasons=1 Ratings=[400,] normamps=152 emergamps=600 length=0.034601 units=km
New "Line.smt_53072556" phases=3 bus1=82026635002086.1.2.3 bus2=82026625002086.1.2.3 linecode=33-31m_3 Seasons=1 Ratings=[400,] normamps=152 emergamps=600 length=0.041053 units=km
New "Line.smt_53072557" phases=3 bus1=88185395002086.1.2.3 bus2=82029245002086.1.2.3 linecode=33-31m_3 Seasons=1 Ratings=[400,] normamps=152 emergamps=600 length=0.031743 units=km
New "Line.smt_53072558" phases=3 bus1=82029245002086.1.2.3 bus2=82029255002086.1.2.3 linecode=33-31m_3 Seasons=1 Ratings=[400,] normamps=152 emergamps=600 length=0.042727 units=km
New "Line.smt_53072559" phases=3 bus1=82029255002086.1.2.3 bus2=82029275002086.1.2.3 linecode=33-31m_3 Seasons=1 Ratings=[400,] normamps=152 emergamps=600 length=0.037501 units=km
New "Line.smt_53072560" phases=3 bus1=82029275002086.1.2.3 bus2=82029285002086.1.2.3 linecode=33-31m_3 Seasons=1 Ratings=[400,] normamps=152 emergamps=600 length=0.039138 units=km
New "Line.smt_53072561" phases=3 bus1=82029285002086.1.2.3 bus2=82027755002086.1.2.3 linecode=33-31m_3 Seasons=1 Ratings=[400,] normamps=152 emergamps=600 length=0.042069 units=km
New "Line.smt_53072562" phases=3 bus1=82026615002086.1.2.3 bus2=82026605002086.1.2.3 linecode=33-31m_3 Seasons=1 Ratings=[400,] normamps=152 emergamps=600 length=0.053375 units=km
New "Line.smt_53072563" phases=3 bus1=82026605002086.1.2.3 bus2=82026595002086.1.2.3 linecode=33-31m_3 Seasons=1 Ratings=[400,] normamps=152 emergamps=600 length=0.031647 units=km
New "Line.smt_53072564" phases=3 bus1=82026595002086.1.2.3 bus2=82026585002086.1.2.3 linecode=33-31m_3 Seasons=1 Ratings=[400,] normamps=152 emergamps=600 length=0.03075 units=km
New "Line.smt_53072565" phases=3 bus1=82026585002086.1.2.3 bus2=82026575002086.1.2.3 linecode=33-31m_3 Seasons=1 Ratings=[400,] normamps=152 emergamps=600 length=0.036796 units=km
New "Line.smt_53072566" phases=3 bus1=82026575002086.1.2.3 bus2=82027205002086.1.2.3 linecode=33-31m_3 Seasons=1 Ratings=[400,] normamps=152 emergamps=600 length=0.042993 units=km
New "Line.smt_53072567" phases=3 bus1=82028845002086.1.2.3 bus2=82028855002086.1.2.3 linecode=33-31m_3 Seasons=1 Ratings=[400,] normamps=152 emergamps=600 length=0.042582 units=km
New "Line.smt_53072568" phases=3 bus1=82028865002086.1.2.3 bus2=82028845002086.1.2.3 linecode=33-31m_3 Seasons=1 Ratings=[400,] normamps=152 emergamps=600 length=0.028795 units=km
New "Line.smt_53072569" phases=3 bus1=82026405002086.1.2.3 bus2=82029325002086.1.2.3 linecode=33-31m_3 Seasons=1 Ratings=[400,] normamps=152 emergamps=600 length=0.028282 units=km
New "Line.smt_53072570" phases=3 bus1=82029325002086.1.2.3 bus2=82029335002086.1.2.3 linecode=33-31m_3 Seasons=1 Ratings=[400,] normamps=152 emergamps=600 length=0.038429 units=km
New "Line.smt_53072571" phases=3 bus1=82029335002086.1.2.3 bus2=82029345002086.1.2.3 linecode=33-31m_3 Seasons=1 Ratings=[400,] normamps=152 emergamps=600 length=0.041637 units=km
New "Line.smt_53072572" phases=3 bus1=82029345002086.1.2.3 bus2=82029355002086.1.2.3 linecode=33-31m_3 Seasons=1 Ratings=[400,] normamps=152 emergamps=600 length=0.028648 units=km
New "Line.smt_53072573" phases=3 bus1=82027755002086.1.2.3 bus2=82029705002086.1.2.3 linecode=33-31m_3 Seasons=1 Ratings=[400,] normamps=152 emergamps=600 length=0.046259 units=km
New "Line.smt_53072574" phases=3 bus1=82029705002086.1.2.3 bus2=82029725002086.1.2.3 linecode=33-31m_3 Seasons=1 Ratings=[400,] normamps=152 emergamps=600 length=0.025759 units=km
New "Line.smt_53072575" phases=3 bus1=82029725002086.1.2.3 bus2=82029135002086.1.2.3 linecode=33-31m_3 Seasons=1 Ratings=[400,] normamps=152 emergamps=600 length=0.052166 units=km
New "Line.smt_53072576" phases=3 bus1=82024945002086b.1.2.3 bus2=82024955002086.1.2.3 linecode=33-31m_3 Seasons=1 Ratings=[400,] normamps=152 emergamps=600 length=0.031839 units=km
New "Line.smt_53072577" phases=3 bus1=82026705002086.1.2.3 bus2=82030425002086.1.2.3 linecode=33-31m_3 Seasons=1 Ratings=[400,] normamps=152 emergamps=600 length=0.045914 units=km
New "Line.smt_53072578" phases=3 bus1=82030425002086.1.2.3 bus2=82028865002086.1.2.3 linecode=33-31m_3 Seasons=1 Ratings=[400,] normamps=152 emergamps=600 length=0.038178 units=km
New "Line.smt_53072579" phases=3 bus1=82034485002086.1.2.3 bus2=82034255002086.1.2.3 linecode=1-31m_3 Seasons=1 Ratings=[400,] normamps=419 emergamps=600 length=0.032615 units=km
New "Line.smt_53072580" phases=3 bus1=82036705002086.1.2.3 bus2=82036695002086.1.2.3 linecode=1-31m_3 Seasons=1 Ratings=[400,] normamps=419 emergamps=600 length=0.034902 units=km
New "Line.smt_53072581" phases=3 bus1=82036715002086.1.2.3 bus2=82036705002086.1.2.3 linecode=1-31m_3 Seasons=1 Ratings=[400,] normamps=419 emergamps=600 length=0.047182 units=km
New "Line.smt_53072582" phases=3 bus1=82036725002086.1.2.3 bus2=82036715002086.1.2.3 linecode=1-31m_3 Seasons=1 Ratings=[400,] normamps=419 emergamps=600 length=0.029246 units=km
New "Line.smt_53072583" phases=3 bus1=82036735002086.1.2.3 bus2=82036725002086.1.2.3 linecode=1-31m_3 Seasons=1 Ratings=[400,] normamps=419 emergamps=600 length=0.037724 units=km
New "Line.smt_53072584" phases=3 bus1=82036745002086.1.2.3 bus2=82036735002086.1.2.3 linecode=1-31m_3 Seasons=1 Ratings=[400,] normamps=419 emergamps=600 length=0.016479 units=km
New "Line.smt_53072585" phases=3 bus1=82036755002086.1.2.3 bus2=82036745002086.1.2.3 linecode=1-31m_3 Seasons=1 Ratings=[400,] normamps=419 emergamps=600 length=0.027628 units=km
New "Line.smt_53072586" phases=3 bus1=82036765002086.1.2.3 bus2=82036755002086.1.2.3 linecode=1-31m_3 Seasons=1 Ratings=[400,] normamps=419 emergamps=600 length=0.052788 units=km
New "Line.smt_53072587" phases=3 bus1=82036775002086.1.2.3 bus2=82036765002086.1.2.3 linecode=1-31m_3 Seasons=1 Ratings=[400,] normamps=419 emergamps=600 length=0.032625 units=km
New "Line.smt_53072588" phases=3 bus1=82036785002086.1.2.3 bus2=82036775002086.1.2.3 linecode=1-31m_3 Seasons=1 Ratings=[400,] normamps=419 emergamps=600 length=0.031765 units=km
New "Line.smt_53072589" phases=3 bus1=82036795002086.1.2.3 bus2=82036785002086.1.2.3 linecode=1-31m_3 Seasons=1 Ratings=[400,] normamps=419 emergamps=600 length=0.019293 units=km
New "Line.smt_53072591" phases=3 bus1=91074225002086.1.2.3 bus2=82024515002086.1.2.3 linecode=1-31m_3 Seasons=1 Ratings=[400,] normamps=419 emergamps=600 length=0.017732 units=km
New "Line.smt_53072592" phases=3 bus1=82033035002086.1.2.3 bus2=87711685002086.1.2.3 linecode=33-31m_3 Seasons=1 Ratings=[400,] normamps=152 emergamps=600 length=0.033929 units=km
New "Line.smt_53072593" phases=3 bus1=82033045002086.1.2.3 bus2=82033055002086.1.2.3 linecode=33-31m_3 Seasons=1 Ratings=[400,] normamps=152 emergamps=600 length=0.035392 units=km
New "Line.smt_53072594" phases=3 bus1=82031795002086.1.2.3 bus2=82030655002086.1.2.3 linecode=33-31m_3 Seasons=1 Ratings=[400,] normamps=152 emergamps=600 length=0.050744 units=km
New "Line.smt_53072595" phases=3 bus1=82031895002086.1.2.3 bus2=82031865002086.1.2.3 linecode=33-31m_3 Seasons=1 Ratings=[400,] normamps=152 emergamps=600 length=0.026146 units=km
New "Line.smt_53072597" phases=3 bus1=82031865002086.1.2.3 bus2=82031805002086.1.2.3 linecode=33-31m_3 Seasons=1 Ratings=[400,] normamps=152 emergamps=600 length=0.04633 units=km
New "Line.smt_53072598" phases=3 bus1=82035225002086b.1.2.3 bus2=82035235002086.1.2.3 linecode=29-31m_3 Seasons=1 Ratings=[400,] normamps=114 emergamps=600 length=0.034782 units=km
New "Line.smt_53072599" phases=3 bus1=82035235002086.1.2.3 bus2=82035245002086.1.2.3 linecode=29-31m_3 Seasons=1 Ratings=[400,] normamps=114 emergamps=600 length=0.036138 units=km
New "Line.smt_53072600" phases=3 bus1=82035245002086.1.2.3 bus2=82035275002086.1.2.3 linecode=29-31m_3 Seasons=1 Ratings=[400,] normamps=114 emergamps=600 length=0.022856 units=km
New "Line.smt_53072601" phases=3 bus1=82035275002086.1.2.3 bus2=82031955002086.1.2.3 linecode=29-31m_3 Seasons=1 Ratings=[400,] normamps=114 emergamps=600 length=0.032497 units=km
New "Line.smt_53072602" phases=3 bus1=82031955002086.1.2.3 bus2=82035255002086.1.2.3 linecode=29-31m_3 Seasons=1 Ratings=[400,] normamps=114 emergamps=600 length=0.017383 units=km
New "Line.smt_53072603" phases=3 bus1=82036265002086.1.2.3 bus2=82035225002086.1.2.3 linecode=33-31m_3 Seasons=1 Ratings=[400,] normamps=152 emergamps=600 length=0.031716 units=km
New "Line.smt_53072604" phases=3 bus1=82036265002086.1.2.3 bus2=82036255002086.1.2.3 linecode=33-31m_3 Seasons=1 Ratings=[400,] normamps=152 emergamps=600 length=0.013608 units=km
New "Line.smt_53072605" phases=3 bus1=82036255002086b.1.2.3 bus2=82036285002086.1.2.3 linecode=33-31m_3 Seasons=1 Ratings=[400,] normamps=152 emergamps=600 length=0.025403 units=km
New "Line.smt_53072606" phases=3 bus1=82036285002086.1.2.3 bus2=82036295002086.1.2.3 linecode=33-31m_3 Seasons=1 Ratings=[400,] normamps=152 emergamps=600 length=0.021994 units=km
New "Line.smt_53072607" phases=3 bus1=82036245002086.1.2.3 bus2=82036265002086.1.2.3 linecode=1-31m_3 Seasons=1 Ratings=[400,] normamps=419 emergamps=600 length=0.014449 units=km
New "Line.smt_53072608" phases=3 bus1=82036265002086.1.2.3 bus2=82036275002086.1.2.3 linecode=1-31m_3 Seasons=1 Ratings=[400,] normamps=419 emergamps=600 length=0.033433 units=km
New "Line.smt_53072609" phases=3 bus1=82036305002086.1.2.3 bus2=82036245002086.1.2.3 linecode=1-31m_3 Seasons=1 Ratings=[400,] normamps=419 emergamps=600 length=0.037432 units=km
New "Line.smt_53072610" phases=3 bus1=82036315002086.1.2.3 bus2=82036305002086.1.2.3 linecode=1-31m_3 Seasons=1 Ratings=[400,] normamps=419 emergamps=600 length=0.040284 units=km
New "Line.smt_53072611" phases=3 bus1=82035305002086.1.2.3 bus2=82036315002086.1.2.3 linecode=1-31m_3 Seasons=1 Ratings=[400,] normamps=419 emergamps=600 length=0.038424 units=km
New "Line.smt_53072612" phases=3 bus1=82035315002086.1.2.3 bus2=82035305002086.1.2.3 linecode=1-31m_3 Seasons=1 Ratings=[400,] normamps=419 emergamps=600 length=0.035215 units=km
New "Line.smt_53072613" phases=3 bus1=82035325002086.1.2.3 bus2=82035315002086.1.2.3 linecode=1-31m_3 Seasons=1 Ratings=[400,] normamps=419 emergamps=600 length=0.04522 units=km
...
